Circuit: * D:\HCMUT\Project\New folder\Design of Memristor-Based Combinational Logic Circuits_Verifying\LTSpice\NAND2\NAND2_using_Yakopcic.asc

WARNING: Node NC_01 is floating and connected to current source G:U1:X.  It's .op solution is defined solely by a .ic statement.

Instance "m2": Length shorter than recommended for a level 1 MOSFET.
Instance "m1": Length shorter than recommended for a level 1 MOSFET.
Direct Newton iteration for .op point succeeded.

Date: Wed Jul 05 09:24:03 2023
Total elapsed time: 0.290 seconds.

tnom = 27
temp = 27
method = modified trap
totiter = 22425
traniter = 22420
tranpoints = 8405
accept = 8360
rejected = 45
matrix size = 9
fillins = 0
solver = Normal
Matrix Compiler1: 332 bytes object code size  0.3/0.2/[0.1]
Matrix Compiler2: 641 bytes object code size  0.2/0.3/[0.2]

