Circuit: * D:\HCMUT\Project\New folder\Design of Memristor-Based Combinational Logic Circuits_Verifying\LTSpice\3-bit Encoder\3-bit encoder.asc

WARNING: Node NC_01 is floating and connected to current source G:U1:X.  It's .op solution is defined solely by a .ic statement.
WARNING: Node NC_02 is floating and connected to current source G:U2:X.  It's .op solution is defined solely by a .ic statement.
WARNING: Node NC_03 is floating and connected to current source G:U3:X.  It's .op solution is defined solely by a .ic statement.
WARNING: Node NC_04 is floating and connected to current source G:U4:X.  It's .op solution is defined solely by a .ic statement.
WARNING: Node NC_05 is floating and connected to current source G:U5:X.  It's .op solution is defined solely by a .ic statement.
WARNING: Node NC_06 is floating and connected to current source G:U6:X.  It's .op solution is defined solely by a .ic statement.

Instance "m15": Length shorter than recommended for a level 1 MOSFET.
Instance "m14": Length shorter than recommended for a level 1 MOSFET.
Instance "m13": Length shorter than recommended for a level 1 MOSFET.
Instance "m12": Length shorter than recommended for a level 1 MOSFET.
Instance "m11": Length shorter than recommended for a level 1 MOSFET.
Instance "m10": Length shorter than recommended for a level 1 MOSFET.
Instance "m9": Length shorter than recommended for a level 1 MOSFET.
Instance "m8": Length shorter than recommended for a level 1 MOSFET.
Instance "m7": Length shorter than recommended for a level 1 MOSFET.
Instance "m6": Length shorter than recommended for a level 1 MOSFET.
Instance "m5": Length shorter than recommended for a level 1 MOSFET.
Instance "m4": Length shorter than recommended for a level 1 MOSFET.
Instance "m3": Length shorter than recommended for a level 1 MOSFET.
Instance "m2": Length shorter than recommended for a level 1 MOSFET.
Instance "m1": Length shorter than recommended for a level 1 MOSFET.
Direct Newton iteration for .op point succeeded.

Date: Wed Jul 05 13:13:35 2023
Total elapsed time: 0.813 seconds.

tnom = 27
temp = 27
method = modified trap
totiter = 63587
traniter = 63572
tranpoints = 20781
accept = 18174
rejected = 2607
matrix size = 32
fillins = 0
solver = Normal
Matrix Compiler1: 1.48 KB object code size  0.3/0.2/[0.1]
Matrix Compiler2: 2.44 KB object code size  0.2/0.3/[0.2]

