Circuit: * D:\HCMUT\Project\New folder\Design of Memristor-Based Combinational Logic Circuits_Verifying\LTSpice\Memristor characteristic\Draft1.asc

WARNING: Node NC_01 is floating and connected to current source G:U1:X.  It's .op solution is defined solely by a .ic statement.

Direct Newton iteration for .op point succeeded.

Date: Tue Jul 04 23:41:51 2023
Total elapsed time: 0.094 seconds.

tnom = 27
temp = 27
method = modified trap
totiter = 777
traniter = 772
tranpoints = 383
accept = 370
rejected = 13
matrix size = 8
fillins = 0
solver = Normal
Matrix Compiler1: 228 bytes object code size  0.1/0.0/[0.0]
Matrix Compiler2: off  [0.0]/0.1/0.1

