Circuit: * D:\HCMUT\Project\Combinational Logic Circuit Study\Design of Memristor-Based Combinational Logic Circuits_Verifying\LTSpice\Memristor characteristic\memristor_Yakopcic_char.asc

Direct Newton iteration for .op point succeeded.

Date: Wed Jul 05 23:22:54 2023
Total elapsed time: 0.962 seconds.

tnom = 27
temp = 27
method = modified trap
totiter = 365000
traniter = 364997
tranpoints = 85991
accept = 64548
rejected = 21443
matrix size = 3
fillins = 0
solver = Normal
Matrix Compiler1:       5 opcodes  0.1/[0.1]/0.1
Matrix Compiler2: off  [0.1]/0.1/0.1

