Circuit: * D:\HCMUT\Project\New folder\Design of Memristor-Based Combinational Logic Circuits_Verifying\LTSpice\3-bit Decoder\3-bit decoder.asc

WARNING: Node NC_01 is floating and connected to current source G:U1:X.  It's .op solution is defined solely by a .ic statement.
WARNING: Node NC_02 is floating and connected to current source G:U2:X.  It's .op solution is defined solely by a .ic statement.
WARNING: Node NC_03 is floating and connected to current source G:U3:X.  It's .op solution is defined solely by a .ic statement.
WARNING: Node NC_04 is floating and connected to current source G:U4:X.  It's .op solution is defined solely by a .ic statement.
WARNING: Node NC_05 is floating and connected to current source G:U5:X.  It's .op solution is defined solely by a .ic statement.
WARNING: Node NC_06 is floating and connected to current source G:U6:X.  It's .op solution is defined solely by a .ic statement.
WARNING: Node NC_07 is floating and connected to current source G:U7:X.  It's .op solution is defined solely by a .ic statement.
WARNING: Node NC_08 is floating and connected to current source G:U8:X.  It's .op solution is defined solely by a .ic statement.
WARNING: Node NC_09 is floating and connected to current source G:U9:X.  It's .op solution is defined solely by a .ic statement.
WARNING: Node NC_10 is floating and connected to current source G:U10:X.  It's .op solution is defined solely by a .ic statement.
WARNING: Node NC_11 is floating and connected to current source G:U11:X.  It's .op solution is defined solely by a .ic statement.
WARNING: Node NC_12 is floating and connected to current source G:U12:X.  It's .op solution is defined solely by a .ic statement.

Instance "m20": Length shorter than recommended for a level 1 MOSFET.
Instance "m19": Length shorter than recommended for a level 1 MOSFET.
Instance "m18": Length shorter than recommended for a level 1 MOSFET.
Instance "m17": Length shorter than recommended for a level 1 MOSFET.
Instance "m16": Length shorter than recommended for a level 1 MOSFET.
Instance "m15": Length shorter than recommended for a level 1 MOSFET.
Instance "m14": Length shorter than recommended for a level 1 MOSFET.
Instance "m13": Length shorter than recommended for a level 1 MOSFET.
Instance "m12": Length shorter than recommended for a level 1 MOSFET.
Instance "m11": Length shorter than recommended for a level 1 MOSFET.
Instance "m10": Length shorter than recommended for a level 1 MOSFET.
Instance "m9": Length shorter than recommended for a level 1 MOSFET.
Instance "m8": Length shorter than recommended for a level 1 MOSFET.
Instance "m7": Length shorter than recommended for a level 1 MOSFET.
Instance "m6": Length shorter than recommended for a level 1 MOSFET.
Instance "m5": Length shorter than recommended for a level 1 MOSFET.
Instance "m4": Length shorter than recommended for a level 1 MOSFET.
Instance "m3": Length shorter than recommended for a level 1 MOSFET.
Instance "m2": Length shorter than recommended for a level 1 MOSFET.
Instance "m1": Length shorter than recommended for a level 1 MOSFET.
Direct Newton iteration for .op point succeeded.

Date: Wed Jul 05 15:10:15 2023
Total elapsed time: 11.419 seconds.

tnom = 27
temp = 27
method = modified trap
totiter = 190907
traniter = 190897
tranpoints = 80315
accept = 80287
rejected = 28
matrix size = 32
fillins = 6
solver = Normal
Thread vector: 9.9/8.7[2] 1.8/1.3[2] 1.5/0.9[2] 0.1/0.5[1]  2592/500
Matrix Compiler1: 2.57 KB object code size  0.5/0.2/[0.1]
Matrix Compiler2: 3.24 KB object code size  0.3/0.3/[0.2]

