Circuit: * D:\HCMUT\Project\Combinational Logic Circuit Study\Design of Memristor-Based Combinational Logic Circuits_Verifying\LTSpice\Multifunctional logic module XOR and AND\XNOR&AND_using_Yakopcic.asc

Instance "m1": Length shorter than recommended for a level 1 MOSFET.
Direct Newton iteration for .op point succeeded.

Date: Wed Jul 05 23:51:31 2023
Total elapsed time: 0.609 seconds.

tnom = 27
temp = 27
method = modified trap
totiter = 21869
traniter = 21858
tranpoints = 10346
accept = 10326
rejected = 20
matrix size = 12
fillins = 2
solver = Normal
Matrix Compiler1: 894 bytes object code size  0.6/0.4/[0.2]
Matrix Compiler2: 1.03 KB object code size  0.3/0.4/[0.2]

